{
  "@context": "https://raw.githubusercontent.com/cloudronin/uofa/main/spec/context/v0.5.jsonld",
  "assuranceLevel": "Medium",
  "bindsRequirement": "requirement-id",
  "canonicalizationAlg": "RDFC-1.0",
  "conformsToProfile": "https://uofa.net/vocab#ProfileComplete",
  "couName": "Take-off transient peak temperature",
  "credibilityIndex": {
    "@type": "xsd:decimal",
    "@value": "0.00"
  },
  "criteriaSet": "https://uofa.net/criteria/nasa-std-7009b",
  "decision": "Accepted",
  "description": "Prediction of peak metal temperature on a high-pressure turbine (HPT) blade during take-off transient conditions to verify compliance with the 1150K design limit.",
  "deviceClass": "Class II (safety-critical propulsion)",
  "generatedAtTime": "2026-05-26T03:36:56Z",
  "hasContextOfUse": {
    "id": "https://uofa.net/instances/hpt-blade-cht-analysis/take-off-transient-peak-temperature/cou",
    "intendedUse": "Prediction of peak metal temperature on a high-pressure turbine (HPT) blade during take-off transient conditions to verify compliance with the 1150K design limit.",
    "name": "Take-off transient peak temperature",
    "type": "ContextOfUse"
  },
  "hasCredibilityFactor": [
    {
      "acceptanceCriteria": "Commercial solver certification (ISO 9001) and regression testing suites demonstrated.",
      "achievedLevel": 2,
      "factorStandard": "ASME-VV40-2018",
      "factorStatus": "assessed",
      "factorType": "Software quality assurance",
      "rationale": "ANSYS CFX 2025 R1 is certified ISO 9001 with extensive V&V documentation and version control.",
      "requiredLevel": 2,
      "type": "CredibilityFactor"
    },
    {
      "acceptanceCriteria": "Comparison to analytical solutions via Method of Manufactured Solutions with errors below 0.01%.",
      "achievedLevel": 3,
      "factorStandard": "ASME-VV40-2018",
      "factorStatus": "assessed",
      "factorType": "Numerical code verification",
      "rationale": "5 MMS benchmark cases passed with errors < 0.01% covering 1D conduction to coupled CHT with turbulence.",
      "requiredLevel": 3,
      "type": "CredibilityFactor"
    },
    {
      "acceptanceCriteria": "Grid Convergence Index (GCI) < 5% across refinement levels at critical locations.",
      "achievedLevel": 1,
      "factorStandard": "ASME-VV40-2018",
      "factorStatus": "assessed",
      "factorType": "Discretization error",
      "rationale": "GCI of 0.8% at mid-span using r=1.26 refinement ratio achieved Level 3. Tip region mesh convergence NOT assessed, resulting in Level 1 overall per narrative gap.",
      "requiredLevel": 1,
      "type": "CredibilityFactor"
    },
    {
      "acceptanceCriteria": "Convergence within target residual (1e-6) or bounded by discretization error.",
      "achievedLevel": 1,
      "factorStandard": "ASME-VV40-2018",
      "factorStatus": "assessed",
      "factorType": "Numerical solver error",
      "rationale": "Residuals converged to 4.2e-7 with double precision. Partial assessment accepted per NASA-STD-7009B Factor 5.1.2 guidance.",
      "requiredLevel": 1,
      "type": "CredibilityFactor"
    },
    {
      "acceptanceCriteria": "Independent review of boundary conditions and mesh quality.",
      "achievedLevel": 2,
      "factorStandard": "ASME-VV40-2018",
      "factorStatus": "assessed",
      "factorType": "Use error",
      "rationale": "Setup reviewed by second analyst with 12+ years experience; files under configuration control.",
      "requiredLevel": 2,
      "type": "CredibilityFactor"
    },
    {
      "acceptanceCriteria": "Justification of turbulence model and constitutive equations appropriate for physics.",
      "achievedLevel": 3,
      "factorStandard": "ASME-VV40-2018",
      "factorStatus": "assessed",
      "factorType": "Model form",
      "rationale": "SST k-omega turbulence model appropriate for attached flow; known limitation in tip-gap flow acknowledged.",
      "requiredLevel": 3,
      "type": "CredibilityFactor"
    },
    {
      "acceptanceCriteria": "Input data traceable to calibrated instruments or certified sources with characterized uncertainty.",
      "achievedLevel": 3,
      "factorStandard": "ASME-VV40-2018",
      "factorStatus": "assessed",
      "factorType": "Model inputs",
      "rationale": "Inlet data from engine test; material data from certified sheets; inputs traceable to ISO 17025.",
      "requiredLevel": 3,
      "type": "CredibilityFactor"
    },
    {
      "acceptanceCriteria": "Representative test articles with statistical characterization.",
      "achievedLevel": 2,
      "factorStandard": "ASME-VV40-2018",
      "factorStatus": "assessed",
      "factorType": "Test samples",
      "rationale": "48-point thermocouple rake with ISO 17025 uncertainty characterization; Level 2 due to solid blade vs engine cooling difference.",
      "requiredLevel": 2,
      "type": "CredibilityFactor"
    },
    {
      "acceptanceCriteria": "Controlled environment with calibrated instruments within spec.",
      "achievedLevel": 3,
      "factorStandard": "ASME-VV40-2018",
      "factorStatus": "assessed",
      "factorType": "Test conditions",
      "rationale": "Cascade rig conditions matched engine Re/Mach within 5%; instruments calibrated < 90 days.",
      "requiredLevel": 3,
      "type": "CredibilityFactor"
    },
    {
      "acceptanceCriteria": "Model inputs match experimental conditions within uncertainty bounds.",
      "achievedLevel": 2,
      "factorStandard": "ASME-VV40-2018",
      "factorStatus": "assessed",
      "factorType": "Equivalency of input parameters",
      "rationale": "Geometry matched within 0.5mm; Re/Mach matched within 5%; turbulence intensity matched within 0.1%.",
      "requiredLevel": 1,
      "type": "CredibilityFactor"
    },
    {
      "acceptanceCriteria": "Quantitative metrics (error %) and uncertainty bands comparing predictions to data.",
      "achievedLevel": 3,
      "factorStandard": "ASME-VV40-2018",
      "factorStatus": "assessed",
      "factorType": "Output comparison",
      "rationale": "Mean error 1.8%, max 4.2%; hot spot within 2mm; meets acceptance criterion for preliminary screening.",
      "requiredLevel": 3,
      "type": "CredibilityFactor"
    },
    {
      "acceptanceCriteria": "QoI directly measures safety/performance and is measurable by model/experiment.",
      "achievedLevel": 2,
      "factorStandard": "ASME-VV40-2018",
      "factorStatus": "assessed",
      "factorType": "Relevance of the quantities of interest",
      "rationale": "Peak metal temperature is the design-limiting parameter for creep life and the 1150K limit.",
      "requiredLevel": 2,
      "type": "CredibilityFactor"
    },
    {
      "acceptanceCriteria": "Validation conditions match the intended use and cover the full COU envelope.",
      "achievedLevel": 2,
      "factorStandard": "ASME-VV40-2018",
      "factorStatus": "assessed",
      "factorType": "Relevance of the validation activities to the COU",
      "rationale": "Validated take-off mid-span but not tip, annular secondary flows, film cooling, or unsteadiness. Acceptable for screening but flagged as gaps.",
      "requiredLevel": 1,
      "type": "CredibilityFactor"
    },
    {
      "acceptanceCriteria": "Input data sources are traceable with known quality.",
      "achievedLevel": 3,
      "assessmentPhase": "capability",
      "factorStandard": "NASA-STD-7009B",
      "factorStatus": "assessed",
      "factorType": "Data pedigree",
      "rationale": "ISO 17025 calibrated instruments; traceable material data sheets; calibration certificates on file.",
      "requiredLevel": 3,
      "type": "CredibilityFactor"
    },
    {
      "acceptanceCriteria": "Evidence of independent technical review with documented resolutions.",
      "achievedLevel": 3,
      "assessmentPhase": "capability",
      "factorStandard": "NASA-STD-7009B",
      "factorStatus": "assessed",
      "factorType": "Development technical review",
      "rationale": "Quarterly reviews by Propulsion Credibility Board with independent reviewer; prior action items closed.",
      "requiredLevel": 3,
      "type": "CredibilityFactor"
    },
    {
      "acceptanceCriteria": "Systematic development processes with configuration management.",
      "achievedLevel": 2,
      "assessmentPhase": "capability",
      "factorStandard": "NASA-STD-7009B",
      "factorStatus": "assessed",
      "factorType": "Development process and product management",
      "rationale": "Git configuration management; change control records; document control integration.",
      "requiredLevel": 2,
      "type": "CredibilityFactor"
    },
    {
      "acceptanceCriteria": "Uncertainty quantification on model outputs (Monte Carlo/Sensitivity).",
      "achievedLevel": 0,
      "assessmentPhase": "results",
      "factorStandard": "NASA-STD-7009B",
      "factorStatus": "scoped-out",
      "factorType": "Results uncertainty",
      "rationale": "Monte Carlo performed for cascade but NOT for engine COU. Condition carried for MRL 4 readiness. Not Assessed.",
      "requiredLevel": 3,
      "type": "CredibilityFactor"
    },
    {
      "acceptanceCriteria": "Results insensitive to reasonable perturbations.",
      "achievedLevel": 2,
      "assessmentPhase": "results",
      "factorStandard": "NASA-STD-7009B",
      "factorStatus": "assessed",
      "factorType": "Results robustness",
      "rationale": "Sensitivity study on turbulence, inlet temp, and cooling flow showed most sensitive param to inlet temp shift.",
      "requiredLevel": 3,
      "type": "CredibilityFactor"
    },
    {
      "acceptanceCriteria": "Evidence of successful prior applications.",
      "achievedLevel": 2,
      "assessmentPhase": "capability",
      "factorStandard": "NASA-STD-7009B",
      "factorStatus": "assessed",
      "factorType": "Use history",
      "rationale": "Model used for 3 engine variants over 6 years with 47 documented runs; no known adverse outcomes.",
      "requiredLevel": 2,
      "type": "CredibilityFactor"
    }
  ],
  "hasDecisionRecord": {
    "actor": "https://uofa.net/instances/hpt-blade-cht-analysis/take-off-transient-peak-temperature/org/dr-a-patel-propulsion-credibility-board",
    "decidedAt": "2026-03-20T00:00:00Z",
    "id": "https://uofa.net/instances/hpt-blade-cht-analysis/take-off-transient-peak-temperature/decision",
    "outcome": "Accepted",
    "rationale": "Model accepted for preliminary screening at MRL 3. Conditions require completion of tip mesh convergence, probabilistic UQ, and film cooling validation before MRL 4 readiness.",
    "role": "Dr. A. Patel, Propulsion Credibility Board",
    "type": "DecisionRecord"
  },
  "hasUncertaintyQuantification": true,
  "hasValidationResult": [
    {
      "comparedAgainst": "Analytical manufactured solutions",
      "description": "Method of Manufactured Solutions (MMS) benchmarking for conjugate heat transfer coupling.",
      "hasUncertaintyQuantification": false,
      "id": "numerical-code-verification-id",
      "metricValue": "Error < 0.01%",
      "name": "Numerical Code Verification",
      "passFail": "Pass",
      "type": "ValidationResult",
      "wasGeneratedBy": {
        "id": "numerical-code-verification-id/activity",
        "type": "prov:Activity"
      }
    },
    {
      "comparedAgainst": "Multiple mesh levels (1.6M, 3.2M, 6.4M)",
      "description": "Grid convergence study at blade mid-span using three refinement levels.",
      "hasUncertaintyQuantification": true,
      "id": "discretization-error-id",
      "metricValue": "GCI 0.8%",
      "name": "Discretization Error (Mid-span)",
      "passFail": "Pass",
      "type": "ValidationResult",
      "uqMethod": "Grid Convergence Index (GCI)",
      "wasGeneratedBy": {
        "id": "discretization-error-id/activity",
        "type": "prov:Activity"
      }
    },
    {
      "comparedAgainst": "Target residuals",
      "description": "Assessment of iterative solver convergence bounded by residual history.",
      "hasUncertaintyQuantification": false,
      "id": "numerical-solver-error-id",
      "metricValue": "4.2e-7 to 8.8e-7",
      "name": "Numerical Solver Error",
      "passFail": "Pass",
      "type": "ValidationResult",
      "wasGeneratedBy": {
        "id": "numerical-solver-error-id/activity",
        "type": "prov:Activity"
      }
    },
    {
      "comparedAgainst": "Experimental test data",
      "description": "Comparison of CFD predictions to 48-point thermocouple measurements in a cold-air cascade rig.",
      "hasUncertaintyQuantification": true,
      "id": "cascade-rig-validation-id",
      "metricValue": "Mean Error 1.8%, Max 4.2%",
      "name": "Cascade Rig Validation",
      "passFail": "Pass",
      "type": "ValidationResult",
      "uqMethod": "Monte Carlo Uncertainty Propagation",
      "wasGeneratedBy": {
        "id": "cascade-rig-validation-id/activity",
        "type": "prov:Activity"
      }
    }
  ],
  "hash": "sha256:0000000000000000000000000000000000000000000000000000000000000000",
  "id": "https://uofa.net/instances/hpt-blade-cht-analysis/take-off-transient-peak-temperature",
  "modelRiskLevel": 3,
  "name": "HPT Blade CHT Analysis — Take-off transient peak temperature",
  "provenanceChain": [
    {
      "activityType": "ImportActivity",
      "generatedEntity": "https://uofa.net/instances/hpt-blade-cht-analysis/take-off-transient-peak-temperature",
      "sourceFile": "/Users/vishnu/Library/CloudStorage/Dropbox/Praxis/Conferences/NAFEMS/demo/aero-evidence-cou1-extracted.xlsx",
      "timestamp": "2026-05-26T03:36:56Z",
      "toolVersion": "uofa-cli 0.8.0"
    }
  ],
  "signature": "ed25519:00000000000000000000000000000000000000000000000000000000000000000000000000000000000000000000000000000000000000000000000000000000",
  "signatureAlg": "ed25519",
  "traceCompleteness": {
    "@type": "xsd:decimal",
    "@value": "0.00"
  },
  "type": "UnitOfAssurance",
  "uncertaintyCIWidth": {
    "@type": "xsd:decimal",
    "@value": "0.0"
  },
  "validationCoverage": {
    "@type": "xsd:decimal",
    "@value": "0.00"
  },
  "verificationCoverage": {
    "@type": "xsd:decimal",
    "@value": "0.00"
  },
  "wasAttributedTo": "https://uofa.net/instances/hpt-blade-cht-analysis/take-off-transient-peak-temperature/org/dr-a-patel",
  "wasDerivedFrom": "DOI, report number, or URI"
}
